LAMMPS (15 Apr 2020)
##############################################################
# Al-TiB2 MMC material, MD simulation to indent and scratch ##
##############################################################

# -------------- Initialisation -------------------#

units           metal
boundary        p p p
atom_style      charge
timestep        0.001

read_data       SE_charge.dat
  orthogonal box = (-48.222 -35.404 -131.72) to (87.295 102.094 216.506)
  reading atoms ...
  28437 atoms
mass    1 14.0067   #Nitrogen
mass    2 12.0107   #Carbon
mass    3 15.9940   #Oxygen
mass    4 32.0650   #Sulphur

#Substrate

region           sars block INF INF INF INF INF 300 units box
group            sars region sars
28437 atoms in group sars

#Indenter

region           top block INF INF INF INF 300 INF units box
group            top region top
0 atoms in group top

#Potentials

pair_style      reax/c NULL
pair_coeff      * * SARS.ff N C O S
compute         peratom all pe/atom
neighbor        0.5 bin
neigh_modify delay 20 every 1 check yes page 500000 one 50000

#Initialisation

velocity all create 353 511124 rot yes mom yes
variable        t_step equal "step"
variable        t_temp equal "temp"
thermo          100
thermo_style    custom step press temp pe

#Relaxation

fix rigid sars addforce 0.0 0.0 0.0
fix relax top nvt temp 250 250 0.01
fix charge all qeq/reax 1 0.0 10.0 1.0e-6 reax/c
variable t equal 0.005
timestep 0.005
dump 1 all custom 500 equil.*.dump id type x y z fx fy fz

run 2000
  update every 1 steps, delay 20 steps, check yes
Step Press Temp PotEng
0    474276.52          353   -3006969.7
Averages over the last 11 of 21 rows, steps 1000 to 2000:
Press Temp PotEng
474277 353 -3.00697e+06
Loop time of 6241.23 on 1 procs for 2000 steps with 28437 atoms

#Indentation

fix 1 top addforce 0.0 -0.05 0.0
fix fix1 all nvt temp 250 250 0.01
dump 2 all custom 100 sars-Indent.*.dump id type x y z fx fy fz

run 1000
Step Press Temp PotEng
2000    474276.52          353   -3006969.7
ERROR: Lost atoms: original 28437 current 23374 (../thermo.cpp:438)
Last command: run 1000
